
function s-eficas-tools-vcs()
{
    echo default
    echo none
    echo git
    echo https://github.com/SalomePlatform/eficas_tools
}

function s-eficas-tools-common-build-depends()
{
    echo s-cmake
    echo os@-sphinx-common
}

function s-eficas-tools-ng-build-depends()
{
    echo s-salome-bin
}

function s-eficas-tools-common-depends()
{
    echo s-salome-configuration
}

function s-eficas-tools-default-depends()
{
    echo s-pyqt
    echo s-qt
}

function s-eficas-tools-env()
{
    local PREFIX=$1
    local TARGET=$2

    set-var    EFICAS_ROOT           $PREFIX
    set-var    EFICAS_TOOLS_ROOT     $PREFIX
    set-var    EFICAS_TOOLS_ROOT_DIR $PREFIX
    set-var    EFICAS_NOUVEAU_ROOT   $PREFIX

    add-to-var PYTHONPATH            \
               $PREFIX/UiQt5
    add-to-var PYTHONPATH            \
               $PREFIX/InterfaceQT4
    add-to-var PYTHONPATH            \
               $PREFIX/lib/python$PYTHON_VERSION/site-packages
}

function s-eficas-tools-config()
{
    local PREFIX=$1
    local TARGET=$2

    cmake -DCMAKE_INSTALL_PREFIX=$PREFIX -DWITH_TELEMAC_CATA=ON \
          -DCMAKE_BUILD_TYPE=$(get-build-type CMAKE Release) \
          ../src
}

function s-eficas-tools-build()
{
    local PREFIX=$1
    local TARGET=$2

    make -j$SCBI_JOBS
}

function s-eficas-tools-install()
{
    local PREFIX=$1
    local TARGET=$2

    make install
}

function s-eficas-tools-prefix()
{
    echo NONE
}
